/*--------------------------------*- C++ -*----------------------------------*\
  =========                 |
  \\      /  F ield         | OpenFOAM: The Open Source CFD Toolbox
   \\    /   O peration     | Website:  https://openfoam.org
    \\  /    A nd           | Version:  6
     \\/     M anipulation  |
\*---------------------------------------------------------------------------*/
FoamFile
{
    version     2.0;
    format      ascii;
    class       dictionary;
    object      topoSetDict;
}

// * * * * * * * * * * * * * * * * * * * * * * * * * * * * * * * * * * * * * //

// *split here*

actions
(
	//Fluid
    {
        name    fluidCellSet;
        type    cellSet;
        action  new;
        source  boxToCell;
        sourceInfo
        {
            box (0 $yfluid 0)($xfluid $ywall $zmax);
        }
    }
    {
        name    fluid;
        type    cellZoneSet;
        action  new;
        source  setToCellZone;
        sourceInfo
        {
            set fluidCellSet;
        }
    }

	//Metal
    {
        name    metalCellSet;
        type    cellSet;
        action  new;
        source  cellToCell;
        sourceInfo
        {
            set fluidCellSet;
        }
    }

    {
        name    metalCellSet;
        type    cellSet;
        action  invert;
    }

    {
        name    metal;
        type    cellZoneSet;
        action  new;
        source  setToCellZone;
        sourceInfo
        {
            set metalCellSet;
        }
    }


);


// ************************************************************************* //
